5
	    12     -94.63318867   -1.27e-09 o    2.05e-06 *    8.99e-07 *    1.73e-05 *    8.16e-06 *  ~
    N            0.640137762529     0.060956824300    -0.000000000000
    C           -0.629536610754     0.002132242014     0.000000000000
    H           -1.233469792826    -0.925445234032    -0.000000000000
    H           -1.201617219050     0.944369240766    -0.000000000000
    H            1.036573294116    -0.891267715012     0.000000000000
