3
	    12     -76.42064541   -4.36e-10 o    2.41e-06 *    1.10e-06 *    3.24e-05 *    2.34e-05 *  ~
    H           -0.927004819028    -0.041088746831    -0.000000000000
    O            0.041581446635    -0.053404002444     0.000000000000
    H            0.267077086116     0.888649019820    -0.000000000000
