5
	    25    -189.77327060   -5.71e-10 o    1.28e-05 *    5.97e-06 *    1.58e-05 *    7.49e-06 *  ~
    C            0.122712437512    -0.405808615532    -0.029725277275
    O            1.075705171545     0.245926126359     0.307092374418
    O           -1.108494091810     0.087060632036    -0.265637672613
    H            0.113477220739    -1.502839521314    -0.195679848455
    H           -1.054209232466     1.049991686621    -0.108302567987
