4
	    11     -77.33323236   -2.17e-09 o    4.32e-06 *    1.44e-06 *    1.10e-05 *    3.44e-06 *  ~
    C       -0.604929631369       -0.000000000000     0.000000000000
    C        0.604929918862        0.000000000000    -0.000000000000
    H        1.677320369939        0.000000000000     0.000000000000
    H       -1.677323793063        0.000000000000    -0.000000000000
