6
	     7     -78.59121379   -1.35e-09 o    5.45e-06 *    1.75e-06 *    1.83e-05 *    9.68e-06 *  ~
    C           -0.666699533676      0.000000235481   -0.000000000000
    C            0.666699108937      0.000000238848    0.000000000000
    H            1.241306782333     -0.931256695005   -0.000000000000
    H            1.241306091201      0.931253869785    0.000000000000
    H           -1.241304253087     -0.931255433669    0.000000000000
    H           -1.241303563155      0.931252611136    0.000000000000
