4
	    13    -114.50764140   -1.39e-07 o    3.94e-06 *    1.97e-06 *    3.34e-05 *    1.75e-05 *  ~
    C           -0.601313361739    -0.000000598822    -0.000000000000
    O            0.602691065742     0.000000370812     0.000000000000
    H           -1.202704546769    -0.945126770975     0.000000000000
    H           -1.202704844873     0.945128015989     0.000000000000
