6
	     1    -169.90280252   -1.70e+02 o    3.03e-06 *    1.52e-06 *    1.89e-05 *    7.37e-06 *  ~
    C           -0.401999754827     0.103219339850    -0.000000003215
    O            0.244906964874     1.130596612916     0.000000002211
    N            0.125943206408    -1.152621798506    -0.000000000132
    H           -1.520438772787     0.081601430519     0.000000002234
    H           -0.463975575973    -1.974297106945     0.000000001355
    H            1.134206279646    -1.264777025281     0.000000001442

