5
	3    -189.77327060   -2.79e-06 o    4.85e-07 *    2.43e-07 *    1.71e-06 *    7.73e-07 *  ~
    C           -0.408373249324     0.117714421492    -0.000000048506
    O            0.264723211746     1.114380865412     0.000000024721
    O            0.071384637195    -1.140967281369     0.000000008452
    H           -1.517424324004     0.084417643908     0.000000031977
    H            1.045579172629    -1.064077379531     0.000000019082
