4
	    10     -56.55427829   -1.22e-08 o    2.18e-06 *    1.33e-06 *    7.37e-06 *    4.75e-06 *  ~
    N              0.000010525141    -0.000000000002   0.074689427645
    H              0.467229612632    -0.809347036630  -0.345987356433
    H              0.467229612667     0.809347036608  -0.345987356428
    H             -0.934605465288     0.000000000056  -0.345786355989
