6
# psi4 optimized result ( scf sto-3g )
    H            1.755938480948     0.103566777625    -0.761245556328
    O            1.243010977780     0.466535819249     0.000000000000
    H            1.755938480948     0.103566777625     0.761245556328
    H           -0.397547583518    -0.144452095585     0.000000000000
    O           -1.323770535916    -0.492804150599     0.000000000000
    H           -1.832616585189     0.354216021245     0.000000000000